/*--------------------------------*- C++ -*----------------------------------*\
  =========                 |
  \\      /  F ield         | OpenFOAM: The Open Source CFD Toolbox
   \\    /   O peration     | Website:  https://openfoam.org
    \\  /    A nd           | Version:  13
     \\/     M anipulation  |
\*---------------------------------------------------------------------------*/
FoamFile
{
    format      ascii;
    class       featureEdgeMesh;
    location    "constant/geometry";
    object      motorBike.eMesh;
}
// * * * * * * * * * * * * * * * * * * * * * * * * * * * * * * * * * * * * * //


// points:

16275
(
(6.36353 0.104198 1.32772)
(6.22365 0.250518 1.30844)
(5.84783 0.395585 1.01166)
(6.03429 0.274904 1.51416)
(6.0404 0.267453 1.5369)
(5.65207 0.358783 1.93843)
(5.53737 0.397634 2.06784)
(5.81935 0.264089 1.85403)
(5.84073 0.226786 1.85672)
(6.83787 -7.81089e-06 0.841717)
(6.62416 0.212898 0.88463)
(6.58303 0.20512 0.920402)
(6.01907 -0.37513 0.841678)
(7.7661 0.0113489 0.507274)
(7.4125 0.0827065 0.551171)
(7.4651 0.140652 0.509354)
(7.98929 0.0965644 0.362185)
(8.09045 -0.194615 0.133475)
(7.69848 0.147628 0.449116)
(7.31576 -7.81089e-06 0.597076)
(7.43973 -7.81089e-06 0.567578)
(4.1927 -8.35851e-06 3.568)
(4.16302 0.0357159 3.56536)
(4.0451 0.145603 3.52856)
(4.10385 0.170102 3.46818)
(4.05039 0.243234 3.30713)
(3.97201 -8.04372e-06 2.86184)
(4.03679 -0.209355 3.00081)
(4.03679 0.209339 3.00081)
(4.11736 0.164594 3.50343)
(4.48838 0.186114 3.27699)
(4.63293 0.210283 3.19165)
(4.57592 0.30349 3.11257)
(4.47095 0.304364 3.13714)
(4.43987 0.304173 3.15856)
(4.43505 0.287208 3.18989)
(4.40005 0.330128 3.09503)
(5.77159 0.37276 1.04236)
(5.84831 -0.393348 1.0123)
(5.46596 -0.446369 1.31378)
(5.21601 0.252901 2.63073)
(5.18767 0.267925 2.68427)
(5.18414 0.263526 2.71725)
(4.015 0.0467959 2.58994)
(4.02508 0.00743564 2.59624)
(4.02508 -0.00745124 2.59624)
(4.015 -0.0468115 2.58994)
(4.11572 -0.0315715 2.25557)
(4.11572 0.0315559 2.25557)
(4.21819 0.0522877 2.08538)
(4.19392 0.0708818 2.13143)
(4.23157 0.0320537 2.07544)
(4.23157 -0.0320694 2.07544)
(4.21819 -0.0523034 2.08538)
(4.19392 -0.0708975 2.13143)
(4.66838 -0.268642 1.68313)
(4.66849 0.268626 1.68314)
(4.66677 0.3613 1.87545)
(10.2599 0.0372475 0.0965652)
(10.2427 0.031942 0.103459)
(10.338 0.0350274 0.0900216)
(10.2342 0.046872 0.071247)
(10.2868 0.0493017 0.0700273)
(8.66494 -7.81089e-06 0.334983)
(8.56197 -7.81089e-06 0.347657)
(8.97926 -0.018991 0.295464)
(8.92997 -0.0234464 0.307233)
(9.65104 0.00347693 0.201936)
(9.6526 -7.81089e-06 0.202287)
(3.64105 0.0904335 3.3981)
(3.63867 0.0942998 3.41304)
(3.63939 0.0939846 3.41086)
(3.65503 0.0979961 3.41165)
(3.73517 0.12682 3.3136)
(3.7068 0.163216 3.37869)
(3.9458 0.149768 3.53215)
(3.67087 0.131853 3.37877)
(3.76849 0.154308 3.45713)
(3.73649 0.131031 3.49043)
(3.85541 0.146937 3.53876)
(3.82459 0.123344 3.54027)
(4.0451 -0.145619 3.52856)
(3.9458 -0.149784 3.53215)
(3.913 -0.0297039 3.59452)
(3.85541 -0.146954 3.53876)
(3.82459 -0.12336 3.54027)
(3.73649 -0.131048 3.49043)
(3.76849 -0.154325 3.45713)
(3.7068 -0.163233 3.37869)
(3.73517 -0.126837 3.3136)
(3.67087 -0.13187 3.37877)
(3.65573 -0.118635 3.43904)
(3.65191 -0.112872 3.42641)
(3.631 -0.108933 3.42985)
(3.65048 -0.104927 3.42029)
(3.65954 -0.116092 3.38016)
(3.61067 -0.0764045 3.37206)
(3.62144 -0.0829275 3.3726)
(3.64105 -0.0904502 3.3981)
(3.65503 -0.0980128 3.41165)
(3.63939 -0.0940013 3.41086)
(3.63867 -0.0943165 3.41304)
(3.60672 -0.0869659 3.40895)
(3.61134 -0.0117444 3.4429)
(3.61014 -8.35851e-06 3.4414)
(3.65573 0.118619 3.43904)
(3.61134 0.0117276 3.4429)
(3.65191 0.112855 3.42641)
(3.631 0.108916 3.42985)
(3.65048 0.104911 3.42029)
(3.65954 0.116075 3.38016)
(3.61067 0.0763878 3.37206)
(3.62144 0.0829107 3.3726)
(3.60672 0.0869491 3.40895)
(3.57952 0.0700076 3.40469)
(3.57471 -8.35851e-06 3.40179)
(3.57189 0.0188024 3.39176)
(3.57479 0.0118391 3.39471)
(3.56776 0.0411069 3.38185)
(3.57479 -0.0118558 3.39471)
(3.57189 -0.0188191 3.39176)
(3.57952 -0.0700243 3.40469)
(3.56776 -0.0411236 3.38185)
(3.57114 -0.0559529 3.37799)
(3.48199 -0.0119256 3.32222)
(3.48199 0.0119089 3.32222)
(3.57114 0.0559361 3.37799)
(3.52274 0.0543342 3.34976)
(3.49175 0.0442445 3.33056)
(3.49175 -0.0442612 3.33056)
(3.52274 -0.0543509 3.34976)
(3.76659 0.142266 3.29502)
(3.74792 0.126165 3.3019)
(3.76659 -0.142283 3.29502)
(3.74792 -0.126182 3.3019)
(3.73411 -0.088511 3.16501)
(3.65473 -0.0113202 3.11137)
(3.73411 0.0884943 3.16501)
(3.65473 0.0113035 3.11137)
(3.65407 -8.35851e-06 3.11249)
(3.73386 0.00312267 3.5337)
(3.73494 -8.35851e-06 3.53553)
(3.73386 -0.00313939 3.5337)
(6.22365 -0.250534 1.30844)
(6.03429 -0.27492 1.51416)
(6.0404 -0.267468 1.5369)
(5.84073 -0.226802 1.85672)
(5.81935 -0.264105 1.85403)
(5.65207 -0.358798 1.93842)
(5.53737 -0.39765 2.06784)
(7.7661 -0.0460282 0.497596)
(7.41252 -0.0827221 0.551124)
(7.46515 -0.140668 0.509253)
(7.69664 -0.178402 0.466292)
(7.27903 -0.16586 0.580561)
(4.16298 -0.0357015 3.5653)
(4.35929 -0.183949 3.33967)
(4.489 -0.187028 3.27778)
(4.46538 -0.209861 3.2644)
(4.05039 -0.243251 3.30713)
(7.9893 -0.0965985 0.362209)
(5.21601 -0.252917 2.63073)
(5.18767 -0.26794 2.68427)
(5.18414 -0.263542 2.71725)
(10.2611 -0.042096 0.100281)
(10.2424 -0.0336634 0.104887)
(10.3629 -0.0267287 0.0685268)
(9.65104 -0.00349255 0.201936)
(3.63733 -0.07764 3.40138)
(3.56575 -0.0207756 3.1674)
(3.56835 0.0237774 3.16652)
(3.56597 0.0220158 3.16514)
(3.56582 0.0204576 3.16662)
(3.56614 0.0188227 3.1677)
(3.56483 -0.0022846 3.16649)
(3.56197 -0.00820994 3.1641)
(3.56657 -0.0107861 3.16749)
(3.57768 -0.0420692 3.15214)
(3.57706 -0.0377044 3.15847)
(3.57145 -0.0321762 3.16677)
(3.58048 -0.0391539 3.17214)
(3.60217 -0.0529573 3.1717)
(3.5708 -0.0235701 3.16898)
(3.57227 -0.0274496 3.16956)
(3.57153 -0.0203929 3.17025)
(3.58253 -0.0389056 3.17481)
(3.58565 -0.0431076 3.17306)
(3.59775 -0.039804 3.1815)
(3.6591 -0.0200744 3.2038)
(3.64307 -0.0511817 3.20405)
(3.63869 -0.0506045 3.20189)
(3.63778 -0.0491301 3.20109)
(3.63571 -0.0515246 3.1991)
(3.64784 -0.0575483 3.20174)
(3.64047 -0.055939 3.20183)
(3.64328 -0.0569079 3.2026)
(3.64906 -0.0632809 3.2023)
(3.70623 -0.0887536 3.25872)
(3.7156 -0.0998681 3.26524)
(3.62937 -0.0618854 3.1874)
(3.63356 -0.061733 3.19113)
(3.63252 -0.0608904 3.19304)
(3.59624 -0.0489862 3.17306)
(3.71132 0.0789083 3.27984)
(3.693 0.0790461 3.30556)
(3.67625 0.0844044 3.28876)
(3.60737 0.00861627 3.28115)
(3.60847 0.068468 3.27403)
(3.56017 0.04947 3.26449)
(3.56061 0.0611787 3.26463)
(3.56265 0.0686217 3.27203)
(3.53933 0.056697 3.26358)
(3.61535 0.0713797 3.27477)
(3.69758 -0.0527697 3.29451)
(3.69799 -0.0576789 3.29757)
(3.6312 -0.0204733 3.28131)
(3.55631 0.00648796 3.27728)
(3.55202 0.00435933 3.27978)
(3.54637 -0.00265888 3.27969)
(3.5429 -0.0030135 3.27887)
(3.53995 -0.00195337 3.27815)
(3.53729 -0.00229599 3.27662)
(3.54974 -0.0161786 3.2683)
(3.53326 -0.00559823 3.26836)
(3.52215 -0.0297753 3.25461)
(3.52133 -0.0255147 3.25508)
(3.51548 0.00407041 3.25474)
(3.51377 -0.00271923 3.25317)
(3.5067 -0.0324584 3.25934)
(3.51433 -0.0229938 3.25873)
(3.51749 -0.0230092 3.25607)
(3.52335 -0.0332187 3.25545)
(3.52173 -0.0349511 3.25688)
(3.52278 -0.0358704 3.25572)
(3.5151 -0.0372979 3.25881)
(3.52079 -0.0382081 3.25692)
(3.52202 -0.0387565 3.25864)
(3.52295 -0.0404897 3.26138)
(3.52593 -0.0462499 3.26244)
(3.53775 -0.054241 3.26208)
(3.63717 -0.077046 3.27957)
(3.60698 -0.0671076 3.27257)
(3.59983 -0.0689513 3.27326)
(3.57928 -0.0626294 3.26993)
(3.57729 -0.0641338 3.2708)
(3.57144 -0.0558896 3.26601)
(3.55395 -0.0580167 3.26407)
(3.55378 -0.0549478 3.26222)
(3.53021 -0.0431122 3.26083)
(3.59728 -0.00618167 3.21441)
(3.59759 -0.00656157 3.21296)
(3.59932 -0.00609388 3.21196)
(3.59731 -0.00481407 3.21613)
(3.59844 0.00545243 3.21714)
(3.59835 0.00775937 3.215)
(3.5992 0.00790256 3.21309)
(3.74179 0.03209 3.29292)
(3.57212 0.020656 3.1697)
(3.58591 0.0472228 3.16572)
(3.57402 0.0301246 3.17033)
(3.57616 0.0277042 3.17291)
(3.57435 0.0253831 3.17072)
(3.58776 0.0334295 3.17601)
(3.58947 0.0386121 3.17701)
(3.57332 0.019807 3.1363)
(3.60294 0.0131586 3.10548)
(3.62065 0.0205939 3.10018)
(3.60294 -0.0131753 3.10548)
(3.57332 -0.0198237 3.1363)
(3.57815 -0.0371374 3.14335)
(3.62065 -0.0206106 3.10018)
(4.40005 -0.330144 3.09503)
(4.51393 -0.318179 3.10783)
(4.47104 -0.304544 3.13727)
(4.43984 -0.304104 3.15851)
(4.43409 -0.285986 3.18788)
(3.56822 0.00268258 3.16885)
(3.56889 0.00492581 3.16937)
(3.56945 0.00729573 3.17)
(3.59652 -0.00518476 3.17535)
(3.59774 0.00386208 3.17469)
(3.59351 0.0401962 3.17883)
(3.58649 0.0440736 3.17341)
(3.59618 0.0494862 3.17378)
(3.59569 0.0429935 3.17786)
(3.602 0.045553 3.18385)
(3.64444 0.0515779 3.20247)
(3.6096 0.0487245 3.18666)
(3.6309 0.0620634 3.18305)
(3.62645 0.0604377 3.18751)
(3.62434 0.0557069 3.18866)
(3.61549 0.0477814 3.18752)
(3.61492 0.0494643 3.18746)
(3.60919 0.0546217 3.18035)
(3.51259 -0.00845748 3.25565)
(3.65378 -0.0778147 3.2817)
(3.66061 -0.0771569 3.28185)
(3.65447 -0.0734282 3.28098)
(3.64479 -0.0720563 3.27822)
(3.63074 -0.0740891 3.27817)
(3.55992 -0.0520405 3.26413)
(3.50706 0.034004 3.26299)
(3.5278 0.0488712 3.26418)
(3.52615 0.0470986 3.26216)
(3.52077 0.0393095 3.25761)
(3.52014 0.0245939 3.25391)
(3.52171 0.0190342 3.25557)
(3.53543 0.0483884 3.2617)
(3.54239 0.0481176 3.25921)
(3.5492 0.0485167 3.26078)
(3.55986 0.0510868 3.26396)
(3.54003 0.0549515 3.26362)
(3.54843 0.0564968 3.26265)
(3.55078 0.0556298 3.26264)
(3.55067 0.0567297 3.26241)
(3.55413 0.0153365 3.27159)
(3.51679 0.0156607 3.25479)
(3.51829 0.0122569 3.25467)
(3.92738 0.597782 1.83468)
(3.92821 0.589038 1.8422)
(3.93578 0.577604 1.84644)
(4.05192 0.642758 2.0607)
(3.94613 0.748548 2.03969)
(4.00528 0.811215 2.09201)
(4.15282 0.825598 2.02966)
(4.0582 0.859169 1.92376)
(4.06701 0.858132 1.89746)
(4.08652 0.821395 1.81719)
(3.97226 0.847105 1.88449)
(3.94387 0.835088 1.83736)
(4.06501 0.819247 1.7555)
(4.08208 0.808538 1.75442)
(4.04056 0.806204 1.75173)
(4.01766 0.782118 1.75421)
(4.08437 0.739776 1.72449)
(4.09932 0.756797 1.71843)
(4.10847 0.75411 1.73154)
(3.93073 0.60263 1.83007)
(3.938 0.638513 1.87801)
(3.95015 0.601417 1.82212)
(3.95975 0.590843 1.82671)
(3.95888 0.582493 1.83395)
(4.13462 0.74808 1.94703)
(4.13247 0.77175 1.9168)
(4.06221 0.747355 1.75602)
(4.10867 0.748067 1.73573)
(4.10245 0.739795 1.73548)
(4.09011 0.735561 1.72925)
(4.51172 0.511739 2.51508)
(4.48968 0.541938 2.54397)
(4.42371 0.690037 2.3933)
(4.32861 0.6204 2.55984)
(4.29936 0.618198 2.14312)
(4.31307 0.781087 2.2948)
(4.3083 0.788855 2.24028)
(4.19106 0.821754 2.13515)
(4.19632 0.809048 2.09603)
(4.21367 0.779318 2.07114)
(4.14325 0.835248 2.08591)
(4.1216 0.839881 2.10214)
(4.08167 0.826684 2.11857)
(4.01851 0.72023 2.15131)
(4.03989 0.691149 2.16587)
(4.05341 0.718208 2.20688)
(4.14259 0.735287 2.32464)
(4.90338 0.117519 1.29171)
(5.17504 0.739077 1.20799)
(5.16978 0.715856 1.13571)
(5.1168 0.363618 1.02863)
(5.41787 0.587163 1.30271)
(5.41707 0.615471 1.42143)
(5.46596 0.446353 1.31378)
(5.13571 0.748987 1.13978)
(5.16033 0.729099 1.06453)
(5.38348 0.656119 0.249597)
(5.33403 0.644244 0.0917029)
(5.28095 0.734359 0.000316552)
(5.25272 0.807015 0.0463436)
(5.24184 0.805592 0.00265766)
(5.01167 0.95945 -0.0199642)
(5.02296 0.961021 0.0008184)
(4.97955 0.9546 0.037853)
(4.94609 0.925661 0.00735459)
(4.93635 0.922803 -0.0202381)
(4.89507 0.880563 0.0629143)
(4.85535 0.888151 0.084882)
(4.75368 0.822327 -0.000516856)
(4.82193 0.844768 0.134497)
(4.84299 0.837434 0.151685)
(4.73425 0.630316 0.162294)
(4.74099 0.574963 0.13555)
(4.80728 0.657572 0.20367)
(4.88258 0.782926 0.32737)
(4.91218 0.398069 0.144206)
(4.87432 0.436985 -0.00212026)
(4.96177 0.318944 0.0129889)
(5.1335 0.416534 -0.0153549)
(5.16213 0.409881 -0.00767553)
(5.21562 0.426333 0.0367187)
(5.33032 0.473611 0.25882)
(4.86341 0.444069 0.44609)
(4.90327 0.450374 0.37408)
(4.84893 0.496527 0.357643)
(5.02236 0.417438 0.349341)
(4.76261 0.498848 0.577834)
(4.75119 0.453363 0.646293)
(4.71776 0.503105 0.627101)
(4.91215 0.342595 1.0184)
(4.65395 0.382325 1.0431)
(4.50032 0.498633 1.19987)
(4.6463 0.399978 0.959827)
(4.61117 0.63489 0.813738)
(4.50747 0.555636 1.0153)
(4.4816 0.579405 1.06674)
(4.76187 0.823663 1.35787)
(4.7079 0.82319 1.27157)
(4.60909 0.83226 1.0509)
(4.55261 0.749764 0.972031)
(4.88554 0.858559 0.782446)
(4.94528 0.861222 0.662649)
(4.91612 0.821783 0.479899)
(4.99206 0.841336 0.386519)
(5.01519 0.867241 0.173918)
(5.07686 0.89377 0.115792)
(4.71295 0.570845 -0.0159417)
(4.69402 0.623543 -0.0312756)
(4.67157 0.658808 -0.0146193)
(4.6869 0.659463 -0.0277997)
(4.9014 0.355582 -0.0187201)
(4.77106 0.843775 -0.0168004)
(4.96834 0.941695 -0.0484922)
(4.94113 0.923987 -0.0348161)
(4.85067 0.882858 -0.0149359)
(4.79615 0.900516 -0.00310606)
(4.75673 0.855916 -0.0129271)
(3.85266 0.70823 1.71243)
(3.83781 0.71287 1.71712)
(3.84428 0.671974 1.71663)
(3.8403 0.724737 1.73437)
(3.844 0.687484 1.78928)
(3.85557 0.726124 1.86476)
(3.86587 0.76348 1.82914)
(3.85644 0.752173 1.85422)
(3.90034 0.795369 1.90075)
(3.92587 0.805753 1.84528)
(3.99336 0.765067 1.73582)
(3.94774 0.774993 1.70142)
(3.98231 0.727037 1.68771)
(3.92539 0.748799 1.71511)
(3.97822 0.735995 1.68784)
(3.96454 0.745454 1.68368)
(3.9474 0.742253 1.68151)
(3.95934 0.693881 1.69635)
(3.98 0.703921 1.69045)
(3.99127 0.735855 1.74682)
(3.88876 0.692846 1.75118)
(3.85062 0.669676 1.71216)
(3.87025 0.670754 1.76704)
(3.87799 0.690431 1.8177)
(3.90457 0.698736 1.81308)
(3.89725 0.688863 1.8411)
(3.91835 0.691226 1.83506)
(3.95452 0.684571 1.85576)
(3.97945 0.695692 1.85898)
(3.93073 -0.602646 1.83007)
(3.92739 -0.597798 1.83468)
(3.92821 -0.589054 1.8422)
(3.93578 -0.57762 1.84644)
(3.938 -0.638528 1.87801)
(4.05193 -0.642774 2.0607)
(3.94613 -0.748564 2.03969)
(4.00528 -0.81123 2.09201)
(4.15282 -0.825613 2.02966)
(4.0582 -0.859184 1.92376)
(4.06701 -0.858147 1.89746)
(4.08652 -0.82141 1.81719)
(3.97226 -0.84712 1.88449)
(3.94388 -0.835103 1.83736)
(4.06501 -0.819262 1.7555)
(4.08208 -0.808553 1.75442)
(4.04056 -0.806219 1.75173)
(4.01767 -0.782133 1.75421)
(4.08437 -0.739791 1.72449)
(4.09932 -0.756812 1.71843)
(4.10847 -0.754125 1.73154)
(3.95888 -0.582509 1.83395)
(4.13462 -0.748095 1.94703)
(4.13247 -0.771765 1.9168)
(4.06221 -0.747371 1.75602)
(4.10867 -0.748082 1.73573)
(4.10245 -0.73981 1.73548)
(4.09011 -0.735576 1.72925)
(4.51172 -0.511755 2.51508)
(4.48968 -0.541953 2.54397)
(4.42371 -0.690053 2.3933)
(4.32861 -0.620415 2.55984)
(4.29936 -0.618213 2.14312)
(4.31307 -0.781103 2.2948)
(4.3083 -0.78887 2.24028)
(4.19106 -0.821769 2.13515)
(4.19632 -0.809063 2.09603)
(4.21367 -0.779333 2.07114)
(4.14325 -0.835263 2.08591)
(4.1216 -0.839896 2.10214)
(4.08167 -0.8267 2.11857)
(4.01851 -0.720245 2.15131)
(4.03989 -0.691164 2.16587)
(4.05341 -0.718223 2.20688)
(4.14259 -0.735302 2.32464)
(3.87025 -0.67077 1.76704)
(3.844 -0.6875 1.78928)
(3.84428 -0.67199 1.71663)
(3.83781 -0.712886 1.71712)
(3.85267 -0.708246 1.71243)
(3.8403 -0.724753 1.73437)
(3.87799 -0.690447 1.8177)
(3.85557 -0.72614 1.86476)
(3.86587 -0.763495 1.82914)
(3.85644 -0.752189 1.85422)
(3.90034 -0.795384 1.90075)
(3.92587 -0.805768 1.84528)
(3.99336 -0.765083 1.73582)
(3.94774 -0.775008 1.70142)
(3.98231 -0.727053 1.68771)
(3.92539 -0.748814 1.71511)
(3.97823 -0.73601 1.68784)
(3.96454 -0.74547 1.68368)
(3.9474 -0.742269 1.68151)
(3.93914 -0.731487 1.68729)
(3.85062 -0.669692 1.71216)
(3.88876 -0.692861 1.75118)
(3.90457 -0.698752 1.81308)
(3.89725 -0.688878 1.8411)
(3.91835 -0.691242 1.83506)
(3.95452 -0.684587 1.85576)
(3.97945 -0.695707 1.85898)
(3.95015 -0.601433 1.82212)
(3.95975 -0.590859 1.82671)
(3.99127 -0.735871 1.74682)
(3.95934 -0.693897 1.69635)
(3.98 -0.703937 1.69045)
(4.57425 -0.383071 1.43172)
(5.35403 -0.657552 1.62289)
(5.21562 -0.426351 0.0367173)
(5.3303 -0.47362 0.258827)
(5.16213 -0.409902 -0.00768064)
(5.1335 -0.416558 -0.0153641)
(4.96174 -0.319017 0.0129128)
(4.90735 -0.392465 0.144781)
(4.8821 -0.432497 0.118762)
(4.87431 -0.437077 -0.00221712)
(4.78108 -0.570795 0.157673)
(4.7349 -0.57117 0.138025)
(4.73315 -0.630676 0.162792)
(4.80858 -0.656962 0.201014)
(4.98241 -0.437802 0.324678)
(5.02236 -0.417454 0.349341)
(4.86366 -0.444544 0.446288)
(4.71719 -0.502765 0.626614)
(4.68382 -0.53276 0.671918)
(4.88319 -0.782412 0.327345)
(4.91579 -0.822279 0.47984)
(4.87455 -0.783521 0.497134)
(5.01521 -0.867279 0.173894)
(4.99206 -0.841351 0.386519)
(4.94528 -0.861206 0.662652)
(5.07688 -0.893799 0.11578)
(5.24186 -0.805608 0.00266201)
(5.25275 -0.80703 0.0463494)
(5.28097 -0.734371 0.000324863)
(5.01178 -0.959513 -0.0200109)
(5.33403 -0.64425 0.0917173)
(5.38347 -0.656123 0.249613)
(5.19274 -0.633803 1.05198)
(4.87729 -0.865939 0.887778)
(4.55348 -0.71847 1.34507)
(4.5858 -0.345907 1.35875)
(4.5772 -0.750063 1.30051)
(4.55036 -0.367626 1.303)
(4.65378 -0.381924 1.04302)
(4.52575 -0.413434 1.22334)
(4.61446 -0.687217 0.815268)
(4.52666 -0.572034 0.981606)
(4.4885 -0.618579 1.01071)
(4.60957 -0.83096 1.05102)
(4.93645 -0.922883 -0.0203062)
(4.94618 -0.925738 0.00728926)
(4.97965 -0.954669 0.0377975)
(5.02307 -0.961082 0.000774827)
(4.84282 -0.83775 0.151866)
(4.81954 -0.84784 0.135116)
(4.85542 -0.888245 0.084791)
(4.75376 -0.822444 -0.000636975)
(4.71298 -0.570971 -0.0160791)
(4.69407 -0.623674 -0.0314168)
(4.67162 -0.658943 -0.0147658)
(4.68695 -0.659596 -0.0279419)
(4.90139 -0.355669 -0.0188116)
(4.77114 -0.84389 -0.0169153)
(4.96845 -0.941768 -0.0485511)
(4.94124 -0.924066 -0.0348829)
(4.85076 -0.882955 -0.0150282)
(4.79624 -0.900625 -0.00321273)
(4.75681 -0.856033 -0.0130455)
(8.45125 0.00106414 0.379803)
(8.49517 -7.81089e-06 0.421759)
(8.49551 0.00061759 0.420879)
(8.50774 4.38542e-05 0.414146)
(8.52482 -7.81089e-06 0.409763)
(5.95602 0.248374 1.64781)
(5.95419 0.266268 1.64096)
(4.086 0.7433 1.72214)
(4.1178 0.716978 1.71122)
(4.11903 0.720143 1.71281)
(4.11518 0.738926 1.72357)
(4.11179 0.748373 1.72375)
(4.09847 0.754531 1.7148)
(4.11849 0.721373 1.71099)
(4.11761 0.719326 1.70966)
(4.09403 0.750179 1.71426)
(4.8123 0.302223 -0.0166672)
(4.80855 0.302937 -0.0176719)
(4.8078 0.296052 -0.00959024)
(4.8078 0.306828 -0.0159526)
(4.81136 0.309 -0.0152657)
(4.82703 0.35305 0.0246075)
(4.82453 0.341696 0.0579878)
(4.8671 0.418551 0.0246576)
(4.8297 0.309433 0.0772818)
(4.85521 0.295383 0.0669906)
(4.55306 0.663075 -0.0310723)
(4.55779 0.671723 -0.031406)
(4.59701 0.665448 -0.0219324)
(4.65282 0.640895 -0.00901085)
(4.70557 0.695073 0.00850545)
(4.55116 0.670058 0.00225288)
(4.62406 0.657673 0.104739)
(4.57299 0.655662 0.0636706)
(4.5475 0.66165 0.003194)
(4.62074 0.629348 0.108712)
(4.68692 0.583107 0.0207275)
(4.57192 0.635032 0.0535878)
(4.62724 0.600658 0.0341172)
(4.55024 0.669971 -0.0224033)
(4.73011 0.896565 -0.0241155)
(4.72354 0.893345 -0.0311507)
(4.73457 0.905421 0.0600249)
(4.7219 0.900607 -0.0307787)
(4.72266 0.902432 -0.0288523)
(4.7202 0.903047 -0.0253462)
(4.75822 0.85331 -0.000915476)
(4.72968 0.889983 0.0576439)
(5.78816 0.309034 2.49152)
(5.75324 0.299725 2.48186)
(5.73286 0.346094 2.66299)
(5.73829 0.344972 2.65758)
(5.73932 0.339588 2.65909)
(5.84175 0.362504 2.59312)
(5.85454 0.359928 2.57469)
(5.84943 0.356186 2.56733)
(5.68413 0.245584 2.3932)
(5.68863 0.244608 2.38561)
(5.57749 0.283995 2.65364)
(5.65283 0.323225 2.61402)
(5.57277 0.300448 2.69573)
(5.55667 0.296128 2.69983)
(5.57071 0.297046 2.69523)
(5.78649 0.304522 2.49279)
(5.84836 0.354546 2.5686)
(5.85308 0.357746 2.5753)
(5.63864 0.214277 2.36119)
(5.52412 0.265559 2.66447)
(5.55768 0.290475 2.69885)
(5.68614 0.241025 2.38692)
(5.68376 0.242479 2.39332)
(4.59151 -7.88726e-06 3.53225)
(4.63926 -7.83976e-06 3.57812)
(4.65826 -7.82672e-06 3.58119)
(4.67641 0.000820559 3.59457)
(4.67635 -7.81834e-06 3.59661)
(4.68203 0.000655439 3.58561)
(4.68223 -7.81741e-06 3.58488)
(4.65623 -7.83883e-06 3.52082)
(4.6578 -7.82393e-06 3.49259)
(4.65404 -7.82486e-06 3.47814)
(4.66219 -7.81368e-06 3.38266)
(4.65969 0.00153056 3.38325)
(4.65597 0.00180001 3.39237)
(4.65701 -7.81462e-06 3.39444)
(4.62739 -7.82579e-06 3.40115)
(4.6279 -7.82952e-06 3.42303)
(4.68273 -7.81555e-06 3.45783)
(4.6874 -7.81555e-06 3.46354)
(4.68495 0.00205144 3.46679)
(4.56016 0.156401 3.39999)
(4.57196 0.161526 3.39947)
(4.57519 0.159177 3.39635)
(4.67389 0.177569 3.32721)
(4.69618 0.189277 3.35448)
(4.71041 0.193191 3.35374)
(4.62868 0.226578 3.46753)
(5.71029 0.00525928 2.40959)
(5.73342 0.00210211 2.47836)
(5.73322 -7.82952e-06 2.48122)
(5.74234 0.00344029 2.47783)
(5.7668 -7.82859e-06 2.43545)
(5.84222 -7.82765e-06 2.45633)
(5.90144 0.00275496 2.58484)
(5.89984 -7.83231e-06 2.58967)
(5.92002 0.00274161 2.57715)
(5.92364 -7.83045e-06 2.58079)
(5.94895 -7.82486e-06 2.51827)
(6.17992 -7.84814e-06 2.68964)
(6.19587 0.00361413 2.50754)
(6.18161 -7.81089e-06 2.48512)
(6.20157 -7.81089e-06 2.44387)
(6.27263 -7.81089e-06 2.45607)
(6.27085 0.00159687 2.45684)
(6.2631 0.00134711 2.45938)
(6.29172 -7.81089e-06 2.30136)
(6.28361 -7.81089e-06 2.28657)
(5.89817 -7.81182e-06 2.07795)
(5.778 -7.83045e-06 2.52524)
(5.79511 -7.83045e-06 2.53426)
(5.79741 -7.83045e-06 2.59659)
(6.05726 -7.85094e-06 2.73272)
(6.05781 -7.85187e-06 2.73948)
(5.89932 -7.81089e-06 2.86676)
(5.9184 -7.81089e-06 2.91669)
(6.15669 -7.81089e-06 3.07145)
(6.15128 0.00291387 3.06983)
(5.86371 -7.79692e-06 3.23241)
(5.85076 -7.79692e-06 3.22159)
(5.82397 0.0230525 3.08302)
(5.74858 -7.79785e-06 3.12563)
(5.72519 -7.79878e-06 3.19325)
(5.69938 -7.79971e-06 3.20653)
(5.70201 0.00251596 3.20252)
(5.67556 -7.79971e-06 3.12965)
(5.58609 -7.80158e-06 3.13724)
(5.56373 -7.80158e-06 3.12373)
(5.56997 -7.80158e-06 3.09824)
(5.42908 -7.80717e-06 3.09455)
(5.43061 0.00360573 3.07639)
(5.39826 -7.80623e-06 2.91523)
(5.34979 -7.8081e-06 2.93113)
(5.33297 -7.8081e-06 2.93023)
(4.99527 -7.82207e-06 3.16624)
(5.02519 -7.82393e-06 3.23122)
(5.0328 -7.82393e-06 3.2309)
(5.05138 -7.82579e-06 3.29806)
(5.05577 -7.82672e-06 3.3044)
(5.06773 -7.82672e-06 3.30229)
(5.08192 -7.82672e-06 3.28735)
(5.18568 -7.83324e-06 3.41408)
(5.20875 -7.83417e-06 3.41894)
(5.44392 -7.84069e-06 3.5233)
(5.44727 -7.84069e-06 3.50704)
(5.41085 -7.83883e-06 3.37404)
(5.41061 -7.8379e-06 3.35104)
(5.46718 -7.80623e-06 3.26521)
(5.49183 0.000942312 3.26207)
(5.49354 -7.80437e-06 3.26261)
(5.48979 0.00157029 3.25552)
(5.49129 -7.80437e-06 3.25441)
(5.42482 -7.81182e-06 3.21494)
(5.47702 -7.80437e-06 3.14948)
(5.47224 -7.8053e-06 3.13453)
(5.3541 -7.80903e-06 2.99722)
(5.01147 -7.82486e-06 3.25879)
(5.01438 -7.82486e-06 3.27567)
(5.00686 -7.82486e-06 3.28809)
(5.03695 -7.82765e-06 3.37515)
(5.0402 -7.82859e-06 3.38655)
(5.01569 0.00301841 3.44003)
(5.06232 -7.83231e-06 3.59288)
(5.04991 -7.83138e-06 3.59718)
(4.95512 -7.82672e-06 3.50097)
(4.89802 -7.82579e-06 3.54857)
(4.88015 -7.82393e-06 3.50982)
(4.81601 -7.82114e-06 3.46865)
(4.74308 -7.81741e-06 3.42362)
(4.73699 -7.81741e-06 3.42823)
(5.91936 -7.81089e-06 2.04075)
(6.10097 0.00815435 2.104)
(6.00352 0.00257341 2.13867)
(6.00532 -7.81182e-06 2.14364)
(6.01064 -7.81182e-06 2.1407)
(6.02602 -7.81182e-06 2.14842)
(6.09502 0.00290076 2.14328)
(6.09492 -7.81182e-06 2.1464)
(6.11114 0.0036028 2.13577)
(6.11559 -7.81089e-06 2.13994)
(6.11826 -7.81089e-06 2.10468)
(6.30571 0.00231691 2.21438)
(6.3046 -7.81089e-06 2.21698)
(6.32396 0.00287093 2.21548)
(6.32819 -7.81089e-06 2.2208)
(6.26727 -7.81089e-06 1.97249)
(6.27464 -7.81089e-06 1.92046)
(6.42645 -7.81089e-06 1.82026)
(6.40746 -7.81089e-06 1.80166)
(6.26537 -7.81089e-06 1.79856)
(6.23797 -7.81089e-06 1.69102)
(6.22933 0.00527863 1.69675)
(6.21496 -7.81089e-06 1.68304)
(6.21293 0.00512166 1.68967)
(6.34121 -7.81089e-06 1.44305)
(6.35974 -7.81089e-06 1.44595)
(6.35751 0.00161534 1.44804)
(6.36274 -7.81089e-06 1.45298)
(6.36016 0.0014476 1.45154)
(6.35121 -7.81089e-06 1.48577)
(6.36914 -7.81089e-06 1.51561)
(6.36111 -7.81089e-06 1.55746)
(6.19928 -7.81089e-06 1.62759)
(6.30362 -7.81089e-06 1.64304)
(6.31301 -7.81089e-06 1.6544)
(6.39772 0.000984131 1.58917)
(6.39895 -7.81089e-06 1.58911)
(6.39901 -7.81089e-06 1.59368)
(6.39812 0.00131339 1.59285)
(6.4349 -7.81089e-06 1.64318)
(6.4372 -7.81089e-06 1.64598)
(5.20076 0.281574 3.11827)
(5.32763 0.326658 3.15809)
(5.32739 0.329625 3.15396)
(5.34039 0.329562 3.15214)
(5.33453 0.330897 3.14935)
(5.51341 0.386432 3.17344)
(5.54206 0.390933 3.16474)
(5.51473 0.355036 3.04073)
(5.40551 0.285711 2.92502)
(5.4407 0.278535 2.86565)
(5.85914 0.190995 1.96572)
(5.87976 0.163302 1.96399)
(5.91601 0.183208 1.96566)
(5.91192 0.175574 1.97162)
(5.69087 0.244841 2.26597)
(5.70037 0.258105 2.25413)
(5.79726 0.253165 2.22733)
(6.05803 0.285319 2.12887)
(6.05634 0.29607 2.1452)
(5.91917 0.328781 2.28892)
(5.90068 0.32275 2.28829)
(6.03887 0.256184 2.11523)
(6.05831 0.278302 2.13186)
(6.05692 0.290386 2.14656)
(5.92048 0.321504 2.29124)
(5.90299 0.318961 2.28929)
(6.10171 0.169342 1.75605)
(6.14917 0.199074 1.80612)
(6.14255 0.199024 1.81488)
(6.14191 0.203714 1.81371)
(6.1462 0.201042 1.80621)
(6.12403 0.206032 1.85921)
(6.15123 0.224643 1.89374)
(6.1618 0.232351 1.91465)
(6.16312 0.235411 1.91474)
(6.1544 0.231243 1.92018)
(6.1526 0.234989 1.92266)
(6.06497 0.20087 1.91537)
(6.06486 0.200903 1.9181)
(6.06057 0.200018 1.92156)
(6.06605 0.20303 1.91916)
(6.02815 0.19173 1.91062)
(5.96336 0.186165 1.94501)
(5.99967 0.20087 1.99152)
(6.00746 0.203364 1.99098)
(5.4314 0.270315 2.86643)
(5.32793 0.321621 3.15386)
(4.78527 0.19952 3.26817)
(4.789 0.195204 3.27013)
(4.78035 0.197852 3.27004)
(5.03892 0.248788 3.13986)
(5.05588 0.271032 3.2213)
(5.05409 0.271674 3.23039)
(5.07031 0.288808 3.31644)
(4.93696 0.24511 3.28133)
(4.92085 0.243017 3.28421)
(4.91327 0.243709 3.29026)
(5.06552 0.288831 3.32005)
(4.90624 0.249677 3.28669)
(4.89853 0.246605 3.34325)
(4.7807 0.191705 3.26989)
(4.90818 0.249072 3.33996)
(4.63522 0.224018 3.4635)
(4.3314 0.306368 3.22988)
(4.27266 0.246878 3.23285)
(4.27027 0.252161 3.22913)
(4.32369 0.29774 3.21886)
(4.35263 0.311481 3.22487)
(4.3549 0.306839 3.22931)
(4.21419 0.264202 3.24322)
(4.23508 0.271933 3.23773)
(4.24241 0.27951 3.243)
(4.2216 0.261263 3.2592)
(4.23814 0.265286 3.25165)
(6.94427 -7.81089e-06 0.823814)
(6.99827 -7.81089e-06 0.793384)
(6.9782 0.0188624 0.769318)
(7.15995 -7.81089e-06 0.809528)
(7.21683 -7.81089e-06 0.801832)
(7.81917 -0.0188116 0.511128)
(7.86098 -0.0251273 0.548526)
(7.84769 -0.0241999 0.561588)
(7.84782 -0.0254185 0.565446)
(7.8573 -0.0321391 0.597276)
(7.8545 -0.0326237 0.600221)
(8.14008 0.00594366 0.462334)
(8.13321 0.0114461 0.467056)
(8.00621 0.00856658 0.46228)
(8.09132 0.0130413 0.508851)
(8.09635 0.00757006 0.513368)
(8.08346 0.0127925 0.514513)
(8.08471 0.00816307 0.520963)
(6.56568 -0.0219917 1.22501)
(6.56737 -0.000984202 1.19966)
(6.59436 -0.00399957 1.18829)
(6.64365 -0.0139062 1.21996)
(6.65152 -0.0124504 1.21186)
(6.61091 -0.0105005 1.14868)
(6.64101 -7.81089e-06 1.11309)
(6.68998 -7.81089e-06 1.08716)
(6.77527 0.0173943 1.05244)
(6.73706 0.0120964 0.997309)
(6.75824 0.0106364 0.977839)
(6.83816 0.016061 1.01432)
(6.83791 0.0122325 1.01679)
(6.84631 0.0149476 1.01391)
(8.2356 -0.0100303 0.42304)
(8.23808 -0.0100366 0.424013)
(8.23821 -0.0114314 0.424461)
(8.25602 -0.0114314 0.435149)
(8.26316 0.000111805 0.403432)
(8.26051 -0.0100729 0.434818)
(8.27062 -0.0114314 0.427561)
(8.30447 -7.81089e-06 0.449176)
(8.32369 -7.81089e-06 0.474357)
(8.32371 0.00199794 0.471026)
(8.34954 -7.81089e-06 0.404524)
(8.36121 -7.81089e-06 0.420148)
(8.36077 0.00186794 0.417642)
(7.58955 -7.81089e-06 0.577771)
(7.60075 -7.81089e-06 0.611236)
(8.13314 0.00628658 0.46916)
(3.88417 -0.000925646 3.59993)
(3.88817 -0.00254416 3.59482)
(4.29552 -8.31567e-06 3.53277)
(4.23817 -8.35385e-06 3.60626)
(4.30667 0.000801704 3.62113)
(4.30731 -8.31008e-06 3.62177)
(4.30653 -8.31008e-06 3.62306)
(4.30585 0.00113969 3.62206)
(4.32071 -8.30449e-06 3.56641)
(4.32779 -0.000789856 3.57516)
(4.34236 -0.00186454 3.58142)
(4.35119 -0.00224912 3.58523)
(4.35144 -0.00267848 3.58553)
(4.35124 -0.00133296 3.58266)
(4.37521 -0.00374569 3.5872)
(4.37235 -0.00322032 3.54981)
(4.37653 -0.00238426 3.534)
(4.38778 2.08738e-05 3.51542)
(4.52272 -0.00229699 3.54165)
(4.52177 -0.000728562 3.54024)
(4.51063 0.00331753 3.46886)
(4.51312 -7.96922e-06 3.44728)
(4.52257 -0.00229278 3.49267)
(4.53821 -0.00228887 3.52783)
(6.51165 -7.81089e-06 1.4128)
(6.50228 -7.81089e-06 1.42455)
(6.34654 -0.00641681 1.39857)
(6.18197 0.30483 1.37354)
(6.12074 0.132127 1.65392)
(6.11341 0.143925 1.65772)
(6.14092 0.150281 1.63816)
(6.18918 0.148118 1.5643)
(6.30874 0.267781 1.42278)
(6.29489 0.269312 1.44123)
(6.29302 0.258411 1.43917)
(6.2472 0.250191 1.47921)
(6.24849 0.244395 1.47864)
(6.19475 0.220607 1.49097)
(6.24521 0.311868 1.20693)
(6.27862 0.292505 1.15589)
(6.5389 0.27315 1.06035)
(6.53777 0.273275 1.07429)
(6.74968 0.251029 0.883649)
(6.75106 0.25316 0.8803)
(6.73692 0.234145 0.854655)
(6.97476 0.181252 0.693483)
(6.85053 0.258449 0.85702)
(6.85599 0.258532 0.864656)
(6.96882 0.301881 0.862797)
(6.98566 0.300219 0.851341)
(7.64621 0.16526 0.499653)
(7.69154 0.170921 0.519164)
(7.69427 0.158382 0.513072)
(7.99606 0.149075 0.422845)
(7.44932 0.210275 0.677106)
(7.41142 0.207475 0.66702)
(7.4443 0.210018 0.683771)
(7.44786 0.206925 0.686797)
(7.31952 0.0769368 0.609476)
(7.39714 0.0707552 0.602603)
(6.96675 0.289699 0.861656)
(9.325 -7.81089e-06 0.248319)
(9.37362 0.000265773 0.236637)
(9.37552 0.00108529 0.287606)
(9.37414 0.00206768 0.28616)
(9.33288 -7.81089e-06 0.271345)
(9.33703 -7.81089e-06 0.273826)
(9.33666 0.00142601 0.271252)
(10.1848 0.00526073 0.145688)
(10.159 0.00932181 0.16209)
(10.1595 0.00526073 0.166489)
(10.0018 -7.81089e-06 0.168897)
(9.79738 -0.0193172 0.239221)
(9.79843 -0.0201426 0.239543)
(9.79113 -0.0199305 0.241641)
(9.79134 -0.0208653 0.242258)
(9.7882 -0.0210679 0.240996)
(9.78949 -0.0156992 0.226012)
(9.76887 -0.0139847 0.220062)
(9.6006 -7.81089e-06 0.238671)
(9.60157 0.00246079 0.236465)
(9.61626 -7.81089e-06 0.23572)
(9.64465 0.00154287 0.231305)
(9.64793 -7.81089e-06 0.23179)
(9.64655 0.00200903 0.23032)
(9.53583 -7.81089e-06 0.268818)
(9.53608 -0.00130409 0.268294)